[TITLE]
A simple network generated with Viper.

[OPTIONS]
FLOW_UNITS CMS
INFILTRATION HORTON
FLOW_ROUTING DYNWAVE
LINK_OFFSETS DEPTH
MIN_SLOPE 0.001
ALLOW_PONDING NO
SKIP_STEADY_STATE NO
START_DATE 01/01/2000
START_TIME 00:00:00
REPORT_START_DATE 01/01/2000
REPORT_START_TIME 00:00:00
END_DATE 01/01/2000
END_TIME 06:00:00
SWEEP_START 01/01
SWEEP_END 12/31
DRY_DAYS 0
REPORT_STEP 00:05:00
WET_STEP 00:05:00
DRY_STEP 01:00:00
ROUTING_STEP 0:00:01
INERTIAL_DAMPING FULL
NORMAL_FLOW_LIMITED BOTH
FORCE_MAIN_EQUATION D-W
VARIABLE_STEP 0.75
LENGTHENING_STEP 300
MIN_SURFAREA 8.5
MAX_TRIALS 8
HEAD_TOLERANCE 0.0015
SYS_FLOW_TOL 5
LAT_FLOW_TOL 5
MINIMUM_STEP 0.5
THREADS 1

[EVAPORATION]
CONSTANT 0.0
DRY_ONLY NO

[RAINGAGES]
Raingage VOLUME 0:05 1.0 FILE rain.dat 1 MM

[SUBCATCHMENTS]
SC_5838467073 Raingage J_5838467073 0.048547 100.0 32.38243786916873 3.253286043802897 0
SC_1200996354 Raingage J_1200996354 0.046269 0.0 31.613519069252817 2.6516504287719727 0
SC_5838467075 Raingage J_5838467075 0.14203 79.875 55.38911621174584 4.760003566741943 0
SC_273532934 Raingage J_273532934 0.24787 52.4 73.17122800587376 4.453582255045573 0
SC_5838467080 Raingage J_5838467080 0.060393 100.0 36.11759870193815 2.8814484278361 0
SC_1193500680 Raingage J_1193500680 0.26466 44.9375 75.60870553202506 1.9615137577056885 0
SC_5838467082 Raingage J_5838467082 0.24481 80.92857142857143 72.7184201829464 4.690352848597935 0
SC_5838467083 Raingage J_5838467083 0.33081 89.94736842105263 84.5315769099219 3.4815874601665295 0
SC_5838467084 Raingage J_5838467084 0.49301 43.12 103.19430269181733 4.87678466796875 0
SC_1194805260 Raingage J_1194805260 0.46376 46.5 100.08581448406154 3.678605397542318 0
SC_273569814 Raingage J_273569814 0.19321 48.18181818181818 64.60176081237096 3.9298560402610083 0
SC_4041725982 Raingage J_4041725982 0.12991 94.0 52.97177793071797 4.979665756225586 0
SC_1194805285 Raingage J_1194805285 0.44208 27.416666666666668 97.71895490428051 3.9583956400553384 0
SC_4041725990 Raingage J_4041725990 0.051773 96.5 33.44105589432589 4.589637756347656 0
SC_4041725991 Raingage J_4041725991 0.13062 90.28571428571429 53.11701177496359 2.552842003958566 0
SC_1142986795 Raingage J_1142986795 0.25227 78.07142857142857 73.81755507228887 4.6805828639439175 0
SC_1193500716 Raingage J_1193500716 0.11557 63.5 49.963788165690744 2.9244410196940103 0
SC_1198516271 Raingage J_1198516271 0.41832 75.66666666666667 95.05653596961298 2.373507022857666 0
SC_4041564211 Raingage J_4041564211 0.020268 0 20.923416281742025 5 0
SC_4041564217 Raingage J_4041564217 0.016725 0 19.00692633353802 5 0
SC_4041564218 Raingage J_4041564218 0.011487 0 15.751880966439918 5 0
SC_4041564220 Raingage J_4041564220 0.025913 100.0 23.658515244389978 5.0 0
SC_1196705857 Raingage J_1196705857 0.24448 72.46153846153847 72.6684690568514 2.1950442974384012 0
SC_365473858 Raingage J_365473858 0.074161 92.25 40.0234481136628 2.9519882202148438 0
SC_4041564228 Raingage J_4041564228 0.023339 99.0 22.452554973255385 5.590169906616211 0
SC_1194805316 Raingage J_1194805316 0.18132 40.22222222222222 62.58274083732 2.6621451907687717 0
SC_3998261323 Raingage J_3998261323 0.57651 26.387096774193548 111.5909777929548 3.6077381257087953 0
SC_5008500812 Raingage J_5008500812 1.0153 64.50909090909092 148.0924067430077 2.327630060369318 0
SC_1194805327 Raingage J_1194805327 0.1061 55.75 47.87226183009601 1.5539218187332153 0
SC_5008500817 Raingage J_5008500817 0.38164 56.77272727272727 90.79344200688159 1.9259751059792258 0
SC_1195599959 Raingage J_1195599959 0.46688 56.074074074074076 100.42233797320145 2.399238868995949 0
SC_3998261336 Raingage J_3998261336 1.2534 16.44776119402985 164.53733692380507 3.3416825479535914 0
SC_3998261338 Raingage J_3998261338 1.3953 28.223684210526315 173.6056834283649 3.6849449559261926 0
SC_388608098 Raingage J_388608098 0.34043 98.05555555555556 85.75075516605007 2.552501254611545 0
SC_3998261347 Raingage J_3998261347 0.83901 24.26086956521739 134.61990818594944 2.299869371497113 0
SC_1201748068 Raingage J_1201748068 0.27141 5.733333333333333 76.56617523885953 2.6861119588216145 0
SC_1142986859 Raingage J_1142986859 0.22093 72.46153846153847 69.07973390139695 4.586817227877104 0
SC_3998261356 Raingage J_3998261356 0.88418 9.133333333333333 138.1964037888053 3.0869133843315972 0
SC_1196611692 Raingage J_1196611692 0.5802 41.67741935483871 111.94756701932586 3.20677972608997 0
SC_1196611695 Raingage J_1196611695 0.41842 67.31818181818181 95.0671610687479 2.9571491588245737 0
SC_1196611696 Raingage J_1196611696 0.86405 54.170212765957444 136.61443019963684 1.5553257718999336 0
SC_1196611697 Raingage J_1196611697 0.79061 63.81395348837209 130.67927933940197 3.1938785286836846 0
SC_1195599986 Raingage J_1195599986 0.19957 56.666666666666664 65.65656515003263 5.185372034708659 0
SC_1196705918 Raingage J_1196705918 0.58744 60.266666666666666 112.64403250490754 2.5785931905110675 0
SC_5029265541 Raingage J_5029265541 0.20886 96.18181818181819 67.16697483361891 4.145587574351918 0
SC_1201748103 Raingage J_1201748103 0.041983 43.0 30.11381948401709 2.5 0
SC_5029265545 Raingage J_5029265545 0.76148 72.7560975609756 128.24958763223114 5.015089825886052 0
SC_27662477 Raingage J_27662477 0.031688 94.0 26.162093269454807 2.5 0
SC_27662479 Raingage J_27662479 0.086208 99.0 43.15194690286689 3.0315792560577393 0
SC_1196705936 Raingage J_1196705936 0.061227 51.333333333333336 36.36620282909931 2.3760245641072593 0
SC_27662481 Raingage J_27662481 0.47598 95.92 101.39638850066815 1.725543212890625 0
SC_269574293 Raingage J_269574293 0.093464 98.57142857142857 44.93120521110054 6.441198076520648 0
SC_269574294 Raingage J_269574294 0.25416 73.13333333333334 74.09409597026618 2.7919186909993488 0
SC_27662485 Raingage J_27662485 0.14942 65.44444444444444 56.81156402377042 2.8487300872802734 0
SC_27662487 Raingage J_27662487 0.63156 69.48484848484848 116.7973096722291 3.190554069750237 0
SC_27662495 Raingage J_27662495 0.43034 69.95833333333333 96.41200239261255 5.108382225036621 0
SC_27662499 Raingage J_27662499 0.16883 69.125 60.387900162581225 4.984889984130859 0
SC_1196705959 Raingage J_1196705959 0.20117 63.45454545454545 65.91899775537242 2.1609282060102983 0
SC_1196726440 Raingage J_1196726440 4.9875 3.9518518518518517 328.222299458185 3.3602064344618054 0
SC_27662506 Raingage J_27662506 0.43901 52.86363636363637 97.37916053213029 0.9080345847389915 0
SC_27662509 Raingage J_27662509 0.093406 83.5 44.917483863560115 1.25 0
SC_27662515 Raingage J_27662515 0.33412 45.22222222222222 84.95331054633658 2.511823230319553 0
SC_1196705972 Raingage J_1196705972 0.088888 76.25 43.817638282000566 2.133883476257324 0
SC_1193996470 Raingage J_1193996470 0.46216 50.96153846153846 99.91287506639411 3.8170075049767127 0
SC_388608187 Raingage J_388608187 0.3501 59.0 86.96067492344878 4.632203046013327 0
SC_27412668 Raingage J_27412668 0.057645 93.33333333333333 35.286393072618814 7.156263987223308 0
SC_27662526 Raingage J_27662526 0.37899 23.5 90.47764730797044 2.6581825256347655 0
SC_27662537 Raingage J_27662537 0.1032 20.4 47.212810671301625 3.121320343017578 0
SC_27662538 Raingage J_27662538 0.16139 19.5 59.04276941605004 2.3112735748291016 0
SC_27662540 Raingage J_27662540 0.076702 40.75 40.70345838108674 3.3038532733917236 0
SC_27662542 Raingage J_27662542 0.098952 22.8 46.231627662718324 3.879324722290039 0
SC_1193996495 Raingage J_1193996495 0.070146 61.0 38.924955492766365 1.6483640670776367 0
SC_3998261458 Raingage J_3998261458 0.16774 22.5 60.192045744796864 2.282366180419922 0
SC_27662548 Raingage J_27662548 0.21859 87.41666666666667 68.71378813087325 1.875 0
SC_27662550 Raingage J_27662550 0.25551 32.92857142857143 74.28997443038112 3.7753306797572543 0
SC_1193996505 Raingage J_1193996505 0.50152 49.535714285714285 104.08084318589012 4.902327401297433 0
SC_27412702 Raingage J_27412702 0.0676 100.0 38.21199293689673 9.344861348470053 0
SC_27662559 Raingage J_27662559 0.60102 83.18181818181819 113.93910670303259 3.295274676698627 0
SC_27662560 Raingage J_27662560 0.25145 63.5 73.69747169342071 1.7542463030133928 0
SC_1195600102 Raingage J_1195600102 0.23912 64.66666666666667 71.8672232735087 2.2233897844950357 0
SC_27662571 Raingage J_27662571 0.39767 61.916666666666664 92.67992480310818 3.5092957814534507 0
SC_269576427 Raingage J_269576427 0.43195 97.44 96.59277095199691 2.6785516357421875 0
SC_7127800048 Raingage J_7127800048 0.019081 91.0 20.301246253906353 2.3140368461608887 0
SC_1195600116 Raingage J_1195600116 0.18161 57.888888888888886 62.63274130657429 2.7079014248318143 0
SC_269574389 Raingage J_269574389 0.45713 65.48 99.36843333734365 3.90287841796875 0
SC_271225076 Raingage J_271225076 0.17521 79.44444444444444 61.519308337222775 1.3888888888888888 0
SC_3998261495 Raingage J_3998261495 0.3309 56.22222222222222 84.54215031150123 1.556219842698839 0
SC_1200996600 Raingage J_1200996600 0.37731 41.15 90.27715084783635 1.973137664794922 0
SC_1201748217 Raingage J_1201748217 0.22872 10.076923076923077 70.28724622401641 3.568196516770583 0
SC_6062696697 Raingage J_6062696697 0.019082 0 20.30217963316385 5 0
SC_1193996542 Raingage J_1193996542 0.17886 49.4 62.1554821635379 6.073419189453125 0
SC_7127800063 Raingage J_7127800063 0.077083 81.6 40.80434997616531 2.4496477127075194 0
SC_273533187 Raingage J_273533187 0.031696 76.0 26.165667911721542 2.5 0
SC_1200996620 Raingage J_1200996620 0.068059 49.666666666666664 38.341468847694635 1.4225889841715496 0
SC_414253324 Raingage J_414253324 0.16961 0.0 60.527213274906195 3.284666485256619 0
SC_7127800079 Raingage J_7127800079 0.088315 64.4 43.6762340250643 7.122225952148438 0
SC_1201748240 Raingage J_1201748240 0.2951 3.2941176470588234 79.83876041701089 5.160804748535156 0
SC_414253328 Raingage J_414253328 0.11518 25.0 49.87816166753497 2.7045618693033853 0
SC_3035894047 Raingage J_3035894047 0.26562 88.07142857142857 75.74625064378911 5.555661882672991 0
SC_1193500968 Raingage J_1193500968 0.46939 55.18518518518518 100.69126893825606 1.3595496283637152 0
SC_30619946 Raingage J_30619946 0.11447 33.166666666666664 49.72453743064652 1.6647300720214844 0
SC_30619947 Raingage J_30619947 0.041569 51.0 29.96484605273244 3.0177669525146484 0
SC_1196706092 Raingage J_1196706092 0.1045 68.2 47.51076229034285 2.9382465362548826 0
SC_1193996586 Raingage J_1193996586 0.16507 53.857142857142854 59.71184335255344 4.623737880161831 0
SC_273920302 Raingage J_273920302 0.046289 32.666666666666664 31.620248733461313 6.627372741699219 0
SC_1193996608 Raingage J_1193996608 0.27006 50.57142857142857 76.37545013359097 1.1486372266496931 0
SC_1201748292 Raingage J_1201748292 0.27312 40.733333333333334 76.80723902054542 2.8898157755533855 0
SC_273930566 Raingage J_273930566 0.099184 78.83333333333333 46.2858756266344 1.2395307223002117 0
SC_414255431 Raingage J_414255431 0.38877 11.333333333333334 91.63730824612048 4.035105387369792 0
SC_414255432 Raingage J_414255432 0.97332 10.596153846153847 144.99526967729656 5.567064138559195 0
SC_270049621 Raingage J_270049621 0.19116 32.8 64.25779225907081 3.563763427734375 0
SC_570311005 Raingage J_570311005 0.38678 46.714285714285715 91.40272009930123 3.013560340518043 0
SC_1196706148 Raingage J_1196706148 0.16431 68.25 59.573415732032565 2.207913875579834 0
SC_1196706175 Raingage J_1196706175 0.11617 77.16666666666667 50.09225397026591 1.8720951080322266 0
SC_1195600256 Raingage J_1195600256 0.091916 81.8 44.557723258822925 2.132721519470215 0
SC_277399939 Raingage J_277399939 0.16742 99.44444444444444 60.13546518905196 1.584016376071506 0
SC_1196706186 Raingage J_1196706186 0.12691 65.85714285714286 52.35662326228603 2.0897248131888255 0
SC_3514253709 Raingage J_3514253709 0.77097 79.14285714285714 129.04639410546002 2.346670604887463 0
SC_1193996690 Raingage J_1193996690 0.16948 63.888888888888886 60.504086190758464 2.384367412990994 0
SC_3795749269 Raingage J_3795749269 0.10837 14.857142857142858 48.3816748387691 1.716571535382952 0
SC_1134010792 Raingage J_1134010792 0.036957 100.0 28.253653740547893 4.7097086906433105 0
SC_3079319986 Raingage J_3079319986 0.057367 71.0 35.201238213657916 2.5 0
SC_3079319987 Raingage J_3079319987 0.032025 48.0 26.301005000650047 1.6666666666666667 0
SC_1193501118 Raingage J_1193501118 0.26046 63.5 75.00556834163038 5.322522299630301 0
SC_1141967299 Raingage J_1141967299 0.24929 14.785714285714286 73.37965669138835 2.071166855948312 0
SC_1141967301 Raingage J_1141967301 0.2097 37.0 67.3024951499568 3.55732169518104 0
SC_1237334484 Raingage J_1237334484 0.14234 38.875 55.44929860399076 0.6700383424758911 0
SC_1195600341 Raingage J_1195600341 0.17534 34.5 61.54121612152937 2.7747116088867188 0
SC_587676124 Raingage J_587676124 1.1003 13.540983606557377 154.16120612814447 3.3119056576588113 0
SC_2015203813 Raingage J_2015203813 0.47653 62.8 101.45444853466027 2.5893060302734376 0
SC_1190091238 Raingage J_1190091238 0.36528 62.421052631578945 88.82557239724875 2.2680172167326274 0
SC_4988502506 Raingage J_4988502506 0.046577 64.33333333333333 31.718405994109386 1.4921410878499348 0
SC_1192665582 Raingage J_1192665582 0.34247 89.88888888888889 86.00818334880691 2.066829045613607 0
SC_1196655088 Raingage J_1196655088 0.068255 72.75 38.396732905310365 1.8341825008392334 0
SC_1193996784 Raingage J_1193996784 0.28291 35.5 78.17136768245733 1.402005331856864 0
SC_1729038836 Raingage J_1729038836 0.10684 95.0 48.03845665776961 5.854689915974935 0
SC_2856276468 Raingage J_2856276468 0.25107 18.714285714285715 73.64188502227731 3.731692450387137 0
SC_3302113786 Raingage J_3302113786 0.45402 41.16 99.02933794345122 2.133551025390625 0
SC_3302113787 Raingage J_3302113787 0.41125 17.434782608695652 94.24911515162664 4.798249617866848 0
SC_4041724412 Raingage J_4041724412 0.016259 0 18.740177670481405 5 0
SC_4041724413 Raingage J_4041724413 0.012502 100.0 16.433279131779926 8.385254859924316 0
SC_1195600381 Raingage J_1195600381 0.35639 72.8 87.73840254470925 1.1139883041381835 0
SC_1143745023 Raingage J_1143745023 0.2628 70.46153846153847 75.34216941482879 2.4782738318810096 0
SC_1193501185 Raingage J_1193501185 0.27587 72.5 77.19319228993714 2.015251568385533 0
SC_2019252746 Raingage J_2019252746 0.072732 99.5 39.63607621551404 2.957808256149292 0
SC_415441421 Raingage J_415441421 0.12504 17.666666666666668 51.9700352037081 3.2599080403645835 0
SC_1143745037 Raingage J_1143745037 0.052686 91.33333333333333 33.73439905209199 3.863696734110514 0
SC_3953779215 Raingage J_3953779215 0.0454 92.0 31.315315915060392 0.0 0
SC_2019252751 Raingage J_2019252751 0.086762 91.57142857142857 43.290383774256085 3.587510245186942 0
SC_1190091281 Raingage J_1190091281 0.15484 86.875 57.831773737541724 3.7003467082977295 0
SC_2019252758 Raingage J_2019252758 0.080843 88.25 41.78779157125928 9.642459869384766 0
SC_587797017 Raingage J_587797017 0.48465 44.0 102.31590430978031 3.163456843449519 0
SC_1195600413 Raingage J_1195600413 0.16068 57.44444444444444 58.91206561183368 2.156422085232205 0
SC_759730721 Raingage J_759730721 0.026331 81.0 23.848254118666294 2.5758252143859863 0
SC_587797025 Raingage J_587797025 1.5068 15.542168674698795 180.40931967950397 3.4770809311464608 0
SC_1143745062 Raingage J_1143745062 0.065054 79.66666666666667 37.48549678517116 2.2014989852905273 0
SC_2019252775 Raingage J_2019252775 0.016844 0 19.074061358306963 5 0
SC_1143745064 Raingage J_1143745064 0.2434 61.714285714285715 72.5080474186669 7.5884279523577005 0
SC_1141967405 Raingage J_1141967405 0.21307 62.81818181818182 67.84024689876836 1.9164473793723367 0
SC_759730734 Raingage J_759730734 0.038464 61.0 28.824073056784673 3.4597086906433105 0
SC_30059059 Raingage J_30059059 0.025663 50.5 23.544123383002894 3.0177669525146484 0
SC_1192665652 Raingage J_1192665652 0.4007 73.25 93.03283835048974 6.46346435546875 0
SC_1134010935 Raingage J_1134010935 0.066164 89.0 37.803889768598836 6.522588729858398 0
SC_1143745081 Raingage J_1143745081 0.13445 87.14285714285714 53.890103815866254 1.197697639465332 0
SC_1192821307 Raingage J_1192821307 0.25922 58.857142857142854 74.8280122549939 3.106233596801758 0
SC_587797051 Raingage J_587797051 1.2492 23.597014925373134 164.26480825700662 2.357575146119986 0
SC_1143745085 Raingage J_1143745085 0.085567 81.5 42.99133620440595 6.19717264175415 0
SC_1190091330 Raingage J_1190091330 0.085828 75.25 43.05665968156482 2.721313714981079 0
SC_1143745096 Raingage J_1143745096 0.43302 58.36363636363637 96.71208148650483 1.3869071440263228 0
SC_587797066 Raingage J_587797066 0.27941 59.125 77.68721716649934 2.350937843322754 0
SC_759730766 Raingage J_759730766 0.023696 94.5 22.62388495894973 2.2382116317749023 0
SC_1196655184 Raingage J_1196655184 0.09111 75.0 44.361811653422684 1.395284652709961 0
SC_4108505682 Raingage J_4108505682 0.13596 86.85714285714286 54.19081641978338 2.817531040736607 0
SC_6702615126 Raingage J_6702615126 0.13982 79.0 54.955963988276686 2.1330535071236745 0
SC_1143745117 Raingage J_1143745117 0.060357 92.0 36.107021675192975 3.219113349914551 0
SC_1195600479 Raingage J_1195600479 0.16084 92.33333333333333 58.94268491969982 3.2640902201334634 0
SC_1143745133 Raingage J_1143745133 0.073618 92.75 39.876557296482865 1.5610475540161133 0
SC_607971949 Raingage J_607971949 2.6105 13.295774647887324 237.4582813590581 2.6061274568799515 0
SC_1143745135 Raingage J_1143745135 0.079353 26.0 41.4007774520938 2.5 0
SC_6320497263 Raingage J_6320497263 0.29869 58.23529411764706 80.32278589320008 5.619946199304917 0
SC_1128559217 Raingage J_1128559217 0.0082546 0 13.352907622640005 5 0
SC_6320497265 Raingage J_6320497265 0.79594 53.523809523809526 131.11945951402342 3.255728222074963 0
SC_1143745139 Raingage J_1143745139 0.15285 62.0 57.458657660751854 6.678215503692627 0
SC_1193501299 Raingage J_1193501299 0.22867 27.666666666666668 70.27921350360232 5.441917419433594 0
SC_1190091385 Raingage J_1190091385 0.16509 61.2 59.71562733361148 5.289430236816406 0
SC_1143745147 Raingage J_1143745147 0.16455 75.25 59.61762159095823 2.0630815029144287 0
SC_1143745148 Raingage J_1143745148 0.062268 100.0 36.67410756496753 3.678511301676432 0
SC_4146600574 Raingage J_4146600574 0.56612 39.93103448275862 110.58158815405994 2.785900247508082 0
SC_1196655236 Raingage J_1196655236 0.24511 53.285714285714285 72.76291345441756 2.990175247192383 0
SC_1143745156 Raingage J_1143745156 0.056178 69.0 34.83451630212572 0.0 0
SC_1143745160 Raingage J_1143745160 0.050672 61.333333333333336 33.083407138632495 5.365497589111328 0
SC_1143745169 Raingage J_1143745169 0.62929 80.02941176470588 116.58715517567168 3.0455964032341454 0
SC_27789973 Raingage J_27789973 0.062036 72.66666666666667 36.605689703182854 1.1279611587524414 0
SC_1143745175 Raingage J_1143745175 0.46226 42.92307692307692 99.92411388864181 3.7963027954101562 0
SC_1143745181 Raingage J_1143745181 0.073581 74.25 39.866564798027554 10.703357696533203 0
SC_1192821407 Raingage J_1192821407 0.14511 54.75 55.98471301931504 0.11048543453216553 0
SC_1143745184 Raingage J_1143745184 0.18901 61.0 63.894999282210485 4.9008338928222654 0
SC_1192821413 Raingage J_1192821413 0.083742 80.0 42.53029680610576 2.8161275386810303 0
SC_1196726953 Raingage J_1196726953 0.081069 81.75 41.84603957807147 0.9360476136207581 0
SC_3517156019 Raingage J_3517156019 0.38891 88.28571428571429 91.6534258831209 3.0969419933500744 0
SC_3517156020 Raingage J_3517156020 0.064051 0 37.19553548787499 5 0
SC_1141967542 Raingage J_1141967542 0.12096 67.33333333333333 51.11550613654417 1.1007494926452637 0
SC_3517156024 Raingage J_3517156024 0.0088704 0 13.84199661190278 5 0
SC_1143745208 Raingage J_1143745208 0.25552 100.0 74.29151845056346 2.168628692626953 0
SC_1196726969 Raingage J_1196726969 0.17449 69.4 61.39155473332447 2.8872602462768553 0
SC_1196726970 Raingage J_1196726970 0.70001 15.236842105263158 122.96413044299041 3.9229800575657894 0
SC_30960316 Raingage J_30960316 0.038901 22.0 28.987262304809292 3.5270773569742837 0
SC_30059192 Raingage J_30059192 0.69979 56.60526315789474 122.94535385873313 1.4559328179610402 0
SC_1143745216 Raingage J_1143745216 0.073052 89.75 39.72309552895394 5.09650993347168 0
SC_1141967558 Raingage J_1141967558 0.14784 29.375 56.51025953291227 4.377835750579834 0
SC_1195600585 Raingage J_1195600585 0.49416 42.0 103.31402282227099 2.4625836181640626 0
SC_1195600590 Raingage J_1195600590 0.12037 54.714285714285715 50.98977999338596 1.6046529497419084 0
SC_1145309903 Raingage J_1145309903 0.067301 77.0 38.12746226782761 6.019791126251221 0
SC_2045407952 Raingage J_2045407952 0.011312 0 15.631606960276065 5 0
SC_1537487574 Raingage J_1537487574 0.04772 70.0 32.10544477234592 2.2382116317749023 0
SC_1196655319 Raingage J_1196655319 0.28293 65.0 78.17416278895648 1.8160155801212086 0
SC_1186642685 Raingage J_1186642685 0.17311 62.8 61.14829720161478 3.052154541015625 0
SC_1143745277 Raingage J_1143745277 0.09049 100.0 44.210636840095304 5.455557632446289 0
SC_273574655 Raingage J_273574655 0.36438 56.75 88.71614629022301 2.820771408081055 0
SC_4396714757 Raingage J_4396714757 0.21411 4.909090909090909 68.00630533315218 1.7639409845525569 0
SC_4396714760 Raingage J_4396714760 0.059234 59.333333333333336 35.769370566296665 5.942207336425781 0
SC_3693990667 Raingage J_3693990667 0.044859 54.666666666666664 31.12802505075708 3.0419012705485025 0
SC_1143745292 Raingage J_1143745292 0.22547 77.3076923076923 69.78710653795427 1.605558835543119 0
SC_1196124942 Raingage J_1196124942 0.86037 66.85106382978724 136.322959426622 3.7913993673121675 0
SC_4396714769 Raingage J_4396714769 0.014438 59.0 17.659537052117226 0.8838834762573242 0
SC_1186642705 Raingage J_1186642705 0.21242 46.0 67.73685688828812 4.060337066650391 0
SC_1189169940 Raingage J_1189169940 0.53072 98.21875 107.06790543964499 3.381969928741455 0
SC_280800022 Raingage J_280800022 0.79386 77.09302325581395 130.94787026810002 4.206747010696766 0
SC_1143745306 Raingage J_1143745306 0.024964 81.0 23.221210538626593 5.0 0
SC_1196124957 Raingage J_1196124957 1.1481 42.69230769230769 157.47490305913198 4.609737454927885 0
SC_271225632 Raingage J_271225632 0.1387 62.285714285714285 54.734906895902476 2.9863147735595703 0
SC_1145309990 Raingage J_1145309990 0.087625 65.0 43.50506250281624 2.265531539916992 0
SC_1144701738 Raingage J_1144701738 0.44458 94.125 97.99437936145183 2.7394116719563804 0
SC_337810218 Raingage J_337810218 0.58525 52.7 112.43421787081277 6.8768254597981775 0
SC_1143745324 Raingage J_1143745324 0.26222 80.5 75.25888430063283 7.093569074358259 0
SC_1145310009 Raingage J_1145310009 0.56117 53.6551724137931 110.09630349682062 2.7251784225990034 0
SC_1143745338 Raingage J_1143745338 0.43332 93.76 96.74602536746286 2.0966732788085936 0
SC_1186642772 Raingage J_1186642772 0.072735 47.0 39.636888322908625 0.715076744556427 0
SC_31865693 Raingage J_31865693 0.31786 68.88235294117646 82.85973206144153 2.972284204819623 0
SC_337806177 Raingage J_337806177 0.40731 67.80952380952381 93.79726787120944 4.771498180571056 0
SC_1143745383 Raingage J_1143745383 0.35272 91.0 87.28507469792493 2.7245716094970702 0
SC_1143745384 Raingage J_1143745384 0.13187 79.0 53.370507716413734 6.930056095123291 0
SC_31865708 Raingage J_31865708 0.19543 91.63636363636364 64.97131488263632 1.6236641623757102 0
SC_1143745391 Raingage J_1143745391 0.29461 85.0625 79.77180414971377 1.3009536266326904 0
SC_273574773 Raingage J_273574773 1.0456 90.75 150.283668198325 3.0670086996895924 0
SC_31865721 Raingage J_31865721 0.035581 0.0 27.72283443777931 4.759858131408691 0
SC_31865723 Raingage J_31865723 0.14351 26.444444444444443 55.67504169371045 2.8922636244032116 0
SC_4850469760 Raingage J_4850469760 0.28227 92.1875 78.08352525007324 1.3037903308868408 0
SC_4850469761 Raingage J_4850469761 0.089742 96.0 44.027654035387236 2.5505501429239907 0
SC_1143745410 Raingage J_1143745410 0.63505 61.121212121212125 117.1202875536174 2.8890073371656015 0
SC_4850469765 Raingage J_4850469765 0.06001 75.0 36.00290747079764 2.5 0
SC_31865734 Raingage J_31865734 0.084048 56.25 42.60788963372592 6.3083906173706055 0
SC_31865739 Raingage J_31865739 1.3302 12.722222222222221 169.503384521789 4.033845689561632 0
SC_31865740 Raingage J_31865740 0.21531 19.5 68.19630108998268 12.201703389485678 0
SC_1194029968 Raingage J_1194029968 0.23273 52.333333333333336 70.90046850303824 3.2289743423461914 0
SC_7122965393 Raingage J_7122965393 0.010397 88.0 14.985857115948276 3.535533905029297 0
SC_1186642833 Raingage J_1186642833 0.12863 58.0 52.71016300365159 5.714269638061523 0
SC_3997477783 Raingage J_3997477783 2.0327 0.03669724770642202 209.53805990497105 5.938112031429186 0
SC_412322715 Raingage J_412322715 0.049931 100.0 32.840821209276655 4.037747701009114 0
SC_6783579036 Raingage J_6783579036 0.061279 46.333333333333336 36.38159990817104 7.803199768066406 0
SC_6783579038 Raingage J_6783579038 0.26558 61.0 75.74038437322135 5.128507760854868 0
SC_3997477792 Raingage J_3997477792 1.8582 1.0909090909090908 200.34434179914027 4.219304556798453 0
SC_1186642852 Raingage J_1186642852 0.13763 53.625 54.523575856597496 1.7820184230804443 0
SC_1194029992 Raingage J_1194029992 0.22369 43.916666666666664 69.50969270233506 2.978940010070801 0
SC_6783579050 Raingage J_6783579050 0.10784 84.71428571428571 48.26430365011978 3.260517120361328 0
SC_6783579051 Raingage J_6783579051 0.3139 89.0625 82.3422671250858 1.7771743535995483 0
SC_1829120940 Raingage J_1829120940 0.086944 77.0 43.33589359673373 5.408937931060791 0
SC_6783579052 Raingage J_6783579052 0.78735 93.79069767441861 130.40959871905642 2.5235730548237645 0
SC_1829120944 Raingage J_1829120944 0.098317 77.0 46.083050008749 3.5 0
SC_6783579057 Raingage J_6783579057 0.4735 51.64 101.1311636833131 3.3248776245117186 0
SC_3997477811 Raingage J_3997477811 0.37139 8.454545454545455 89.56549570252582 2.8027465126731177 0
SC_6783579060 Raingage J_6783579060 0.36693 79.26315789473684 89.02641979877727 4.053220246967516 0
SC_1192526773 Raingage J_1192526773 0.39882 71.45833333333333 92.81475599475398 4.194838205973308 0
SC_3997477815 Raingage J_3997477815 0.031319 64.0 26.009235999352413 3.0177669525146484 0
SC_6783579069 Raingage J_6783579069 1.1007 91.25 154.19201114635288 2.202393086751302 0
SC_269575101 Raingage J_269575101 0.26911 20.571428571428573 76.24167340674735 2.9464994158063615 0
SC_6783579072 Raingage J_6783579072 0.19677 87.63636363636364 65.19437248507013 2.5910110473632812 0
SC_1194030017 Raingage J_1194030017 0.30266 69.0 80.85433198824344 2.935382169835708 0
SC_1141967808 Raingage J_1141967808 0.24636 50.84615384615385 72.94818671221375 6.587361849271334 0
SC_1194775492 Raingage J_1194775492 0.22573 45.75 69.82598873039014 4.475406646728516 0
SC_269575112 Raingage J_269575112 1.1412 39.114754098360656 156.99999400035003 3.4032372646644466 0
SC_1196655562 Raingage J_1196655562 0.11546 62.0 49.940240701181054 1.655229091644287 0
SC_1194775498 Raingage J_1194775498 0.049142 60.0 32.58005860357955 2.133883476257324 0
SC_1194775500 Raingage J_1194775500 0.094165 67.0 45.09944414401289 4.914213562011719 0
SC_1194775499 Raingage J_1194775499 0.18464 69.66666666666667 63.15186245334378 3.897322760687934 0
SC_1194775502 Raingage J_1194775502 0.1715 66.0 60.864467445727236 5.967512893676758 0
SC_3997477839 Raingage J_3997477839 0.14157 61.75 55.297703290325664 2.282599925994873 0
SC_1194775505 Raingage J_1194775505 0.093979 80.5 45.055002520265234 0.49410587549209595 0
SC_1194775508 Raingage J_1194775508 0.050135 52.5 32.90772259424078 3.9528470039367676 0
SC_1194775509 Raingage J_1194775509 0.23204 35.92857142857143 70.79586378900584 4.054436274937221 0
SC_3997477846 Raingage J_3997477846 0.094129 45.2 45.09088357247325 2.0720613479614256 0
SC_1189170133 Raingage J_1189170133 0.081827 68.75 42.04114222303701 2.4070184230804443 0
SC_1189170137 Raingage J_1189170137 0.46603 30.0 100.33122034812877 5.6585744222005205 0
SC_1864106970 Raingage J_1864106970 0.14487 12.9 55.93965137633678 1.9407798767089843 0
SC_7124741087 Raingage J_7124741087 0.031831 89.0 26.221063467802406 5.726423263549805 0
SC_1585587171 Raingage J_1585587171 0.049784 45.4 32.79243593295758 2.300930404663086 0
SC_1145310183 Raingage J_1145310183 0.1757 63.6 61.60374667196143 5.8747406005859375 0
SC_1186642920 Raingage J_1186642920 0.10152 51.666666666666664 46.82746172187337 5.052977879842122 0
SC_1195599498 Raingage J_1195599498 0.093886 53.0 45.03256507394432 0.0 0
SC_1585587183 Raingage J_1585587183 1.1114 11.39344262295082 154.9422854660057 3.475654727122823 0
SC_1186642947 Raingage J_1186642947 0.28133 64.92857142857143 77.95284587659252 3.9018462044852122 0
SC_1193714703 Raingage J_1193714703 0.38911 75.04761904761905 91.67785444309709 2.7067972819010415 0
SC_1193714706 Raingage J_1193714706 0.075328 97.5 40.33706568696273 5.1259765625 0
SC_1905626142 Raingage J_1905626142 0.03631 48.0 28.005387621125184 0.625 0
SC_3224615967 Raingage J_3224615967 0.24302 75.58333333333333 72.4514868598715 4.421041488647461 0
SC_1144701985 Raingage J_1144701985 0.12287 67.71428571428571 51.51786830286429 0.28234621456691195 0
SC_1905626157 Raingage J_1905626157 0.091182 54.8 44.379448728561385 2.883883476257324 0
SC_1196151861 Raingage J_1196151861 0.17243 82.54545454545455 61.02926527635071 2.780143217606978 0
SC_273574967 Raingage J_273574967 0.20529 79.08333333333333 66.5909564767461 3.0810623168945312 0
SC_1196196934 Raingage J_1196196934 0.13539 73.57142857142857 54.078740345808804 2.863806588309152 0
SC_1186643015 Raingage J_1186643015 0.39678 52.43478260869565 92.57616905192239 2.7136872333029043 0
SC_1192526930 Raingage J_1192526930 0.43662 37.333333333333336 97.1138065104186 1.707877477010091 0
SC_280773715 Raingage J_280773715 0.038752 99.66666666666667 28.931783243719646 3.530056635538737 0
SC_1186643031 Raingage J_1186643031 0.36482 58.55 88.76938880373106 4.204477691650391 0
SC_273570904 Raingage J_273570904 0.12697 81.5 52.36933078522531 3.575383186340332 0